data/ieee123/IEEELineCodes.dss
! IEEE 123-Bus Test Feeder -- Line Impedance Codes
! Units: ohms per kilometer, nanofarads per kilometer
! All values are for the complete line section (not per-phase)
!
! Linecodes 1-9: Three-phase configurations
! Linecodes 10-11: Single-phase configurations
!
! Ampacity ratings (thermal limits) are in Amps per phase

! --------------------------------------------------------------------------
! Three-Phase Line Codes
! --------------------------------------------------------------------------

! Configuration 1: 336,400 26/7 ACSR (main trunk, heavy sections)
New Linecode.1 nphases=3 BaseFreq=60
~ rmatrix=(0.0868 | 0.0298 0.0868 | 0.0298 0.0298 0.0868)
~ xmatrix=(0.2025 | 0.0847 0.2025 | 0.0847 0.0847 0.2025)
~ cmatrix=(2.851 | -0.920 2.851 | -0.920 -0.920 2.851)
~ units=km
~ normamps=530 emergamps=636

! Configuration 2: 4/0 6/1 ACSR (branch feeders)
New Linecode.2 nphases=3 BaseFreq=60
~ rmatrix=(0.1413 | 0.0298 0.1413 | 0.0298 0.0298 0.1413)
~ xmatrix=(0.2175 | 0.0847 0.2175 | 0.0847 0.0847 0.2175)
~ cmatrix=(2.568 | -0.762 2.568 | -0.762 -0.762 2.568)
~ units=km
~ normamps=340 emergamps=408

! Configuration 3: 1/0 ACSR (lighter branch feeders)
New Linecode.3 nphases=3 BaseFreq=60
~ rmatrix=(0.2261 | 0.0298 0.2261 | 0.0298 0.0298 0.2261)
~ xmatrix=(0.2327 | 0.0847 0.2327 | 0.0847 0.0847 0.2327)
~ cmatrix=(2.362 | -0.630 2.362 | -0.630 -0.630 2.362)
~ units=km
~ normamps=230 emergamps=276

! Configuration 4: 2 ACSR (light laterals, three-phase)
New Linecode.4 nphases=3 BaseFreq=60
~ rmatrix=(0.3591 | 0.0298 0.3591 | 0.0298 0.0298 0.3591)
~ xmatrix=(0.2467 | 0.0847 0.2467 | 0.0847 0.0847 0.2467)
~ cmatrix=(2.189 | -0.549 2.189 | -0.549 -0.549 2.189)
~ units=km
~ normamps=180 emergamps=216

! Configuration 5: 336,400 26/7 ACSR -- underground equivalent
New Linecode.5 nphases=3 BaseFreq=60
~ rmatrix=(0.1053 | 0.0395 0.1053 | 0.0395 0.0395 0.1053)
~ xmatrix=(0.1285 | 0.0572 0.1285 | 0.0572 0.0572 0.1285)
~ cmatrix=(4.195 | -1.502 4.195 | -1.502 -1.502 4.195)
~ units=km
~ normamps=490 emergamps=588

! Configuration 6: 4/0 ACSR -- underground equivalent
New Linecode.6 nphases=3 BaseFreq=60
~ rmatrix=(0.1693 | 0.0395 0.1693 | 0.0395 0.0395 0.1693)
~ xmatrix=(0.1435 | 0.0572 0.1435 | 0.0572 0.0572 0.1435)
~ cmatrix=(3.826 | -1.285 3.826 | -1.285 -1.285 3.826)
~ units=km
~ normamps=310 emergamps=372

! Configuration 7: 1/0 -- underground equivalent
New Linecode.7 nphases=3 BaseFreq=60
~ rmatrix=(0.2541 | 0.0395 0.2541 | 0.0395 0.0395 0.2541)
~ xmatrix=(0.1583 | 0.0572 0.1583 | 0.0572 0.0572 0.1583)
~ cmatrix=(3.518 | -1.098 3.518 | -1.098 -1.098 3.518)
~ units=km
~ normamps=210 emergamps=252

! Configuration 8: 2 ACSR -- underground equivalent
New Linecode.8 nphases=3 BaseFreq=60
~ rmatrix=(0.3871 | 0.0395 0.3871 | 0.0395 0.0395 0.3871)
~ xmatrix=(0.1723 | 0.0572 0.1723 | 0.0572 0.0572 0.1723)
~ cmatrix=(3.265 | -0.945 3.265 | -0.945 -0.945 3.265)
~ units=km
~ normamps=165 emergamps=198

! Configuration 9: Spacer cable (urban segments)
New Linecode.9 nphases=3 BaseFreq=60
~ rmatrix=(0.1182 | 0.0332 0.1182 | 0.0332 0.0332 0.1182)
~ xmatrix=(0.0965 | 0.0438 0.0965 | 0.0438 0.0438 0.0965)
~ cmatrix=(5.012 | -1.892 5.012 | -1.892 -1.892 5.012)
~ units=km
~ normamps=450 emergamps=540

! --------------------------------------------------------------------------
! Single-Phase Line Codes
! --------------------------------------------------------------------------

! Configuration 10: 4/0 ACSR single-phase with neutral
New Linecode.10 nphases=1 BaseFreq=60
~ rmatrix=(0.1413)
~ xmatrix=(0.2175)
~ cmatrix=(2.568)
~ units=km
~ normamps=340 emergamps=408

! Configuration 11: 1/0 ACSR single-phase with neutral
New Linecode.11 nphases=1 BaseFreq=60
~ rmatrix=(0.2261)
~ xmatrix=(0.2327)
~ cmatrix=(2.362)
~ units=km
~ normamps=230 emergamps=276
